LTspice 24.0.12 for Windows
Circuit: * C:\work\GitHub\DTS_Board\HW\LISN\LISN_5u\LTspice\LISN_5uH.asc
Start Time: Fri Dec  6 12:43:33 2024
solver = Normal
Maximum thread count: 8
tnom = 27
temp = 27
method = modified trap
c1: Increased Cpar to 1e-13
c2: Increased Cpar to 1e-13
c3: Increased Cpar to 4.7e-13
c4: Increased Cpar to 4.7e-13
c6: Increased Cpar to 2.2e-11
c7: Increased Cpar to 2.2e-12
WARNING: Node N010 is floating.

.OP point found by inspection.
Ignoring empty pin current: Ix(u1:1)
Ignoring empty pin current: Ix(u1:2)
Ignoring empty pin current: Ix(u1:1)
Ignoring empty pin current: Ix(u1:2)
Total elapsed time: 0.066 seconds.

